Circuit: ********************************************************************************

Fatal Error: No analysis request found.
