Circuit: * C:\Users\Jean Louis Salvat\Desktop\LTspiceIV\examples\addon\sensors\LM35_test.asc

Direct Newton iteration for .op point succeeded.

Date: Sat Feb 16 20:24:45 2013
Total elapsed time: 0.380 seconds.

tnom = 27
temp = 125
method = trap
totiter = 3
traniter = 0
tranpoints = 0
accept = 0
rejected = 0
matrix size = 3
fillins = 0
solver = Normal
Matrix Compiler1: 68 octet(s) object code size
Matrix Compiler2: 149 octet(s) object code size

