Circuit: * C:\Users\Jean Louis Salvat\Desktop\LTspiceIV\examples\addon\sensors\LM335_Project.asc

Direct Newton iteration for .op point succeeded.

Date: Sat Feb 16 20:18:55 2013
Total elapsed time: 0.049 seconds.

tnom = 27
temp = 27
method = trap
totiter = 299
traniter = 0
tranpoints = 0
accept = 0
rejected = 0
matrix size = 50
fillins = 50
solver = Normal
Matrix Compiler1:     265 opcodes  1.4/0.6/[0.3]
Matrix Compiler2: 4,69 Ko object code size  0.6/0.9/[0.3]


