Circuit: * C:\Users\Jean Louis Salvat\Desktop\LTspiceIV\examples\addon\sensors\PT100_test2.asc

Direct Newton iteration for .op point succeeded.

Date: Sat Feb 16 20:36:43 2013
Total elapsed time: 0.066 seconds.

tnom = 27
temp = 27
method = trap
totiter = 3
traniter = 0
tranpoints = 0
accept = 0
rejected = 0
matrix size = 4
fillins = 0
solver = Normal
Matrix Compiler1: 136 octet(s) object code size
Matrix Compiler2: 230 octet(s) object code size

