Circuit: * C:\Users\Jean Louis Salvat\Desktop\LTspiceIV\examples\addon\sensors\LM335_LM235_LM135_test.asc


Date: Sat Feb 16 20:15:59 2013
Total elapsed time: 0.046 seconds.

tnom = 27
temp = 27
method = trap
totiter = 105
traniter = 0
tranpoints = 0
accept = 0
rejected = 0
matrix size = 37
fillins = 15
solver = Normal
Matrix Compiler1: 2,38 Ko object code size  2.0/1.0/[0.5]
Matrix Compiler2: 2,92 Ko object code size  0.8/1.1/[0.5]


