Circuit: * C:\Users\Jean Louis Salvat\Desktop\LTspiceIV\examples\addon\sensors\MCP9701_test.asc

Ignoring empty pin current: Ix(u1:3)
Ignoring empty pin current: Ix(u1:4)

Date: Sat Feb 16 21:05:59 2013
Total elapsed time: 0.044 seconds.

tnom = 27
temp = 27
method = trap
totiter = 204
traniter = 0
tranpoints = 0
accept = 0
rejected = 0
matrix size = 12
fillins = 1
solver = Normal
Matrix Compiler1: 374 octet(s) object code size  0.2/0.1/[0.1]
Matrix Compiler2: 758 octet(s) object code size  0.1/0.2/[0.1]


