Circuit: * C:\Users\Jean Louis Salvat\Desktop\LTspiceIV\examples\addon\sensors\micelectret1_test1.asc

Direct Newton iteration for .op point succeeded.

Date: Sat Feb 16 21:08:00 2013
Total elapsed time: 0.186 seconds.

tnom = 27
temp = 27
method = modified trap
totiter = 20053
traniter = 20048
tranpoints = 10025
accept = 10024
rejected = 1
matrix size = 13
fillins = 2
solver = Normal
Matrix Compiler1:      27 opcodes  0.7/[0.4]/0.4
Matrix Compiler2: off  [0.3]/0.6/0.6


